Version 4
SHEET 1 880 680
WIRE -32 -16 -128 -16
WIRE 384 -16 -32 -16
WIRE -128 16 -128 -16
WIRE -32 32 -32 -16
WIRE 0 32 -32 32
WIRE 384 32 384 -16
WIRE 384 32 336 32
WIRE -192 112 -400 112
WIRE -128 112 -128 96
WIRE -128 112 -192 112
WIRE -32 112 -32 32
WIRE 0 112 -32 112
WIRE 624 112 336 112
WIRE 720 112 624 112
WIRE 832 112 784 112
WIRE -192 128 -192 112
WIRE -400 144 -400 112
WIRE 624 144 624 112
WIRE 832 144 832 112
WIRE -128 192 -128 112
WIRE 0 192 -128 192
WIRE 480 192 336 192
WIRE 480 208 480 192
WIRE -192 224 -192 192
WIRE 0 272 -80 272
WIRE 384 272 336 272
WIRE -80 320 -80 272
WIRE 384 368 384 272
WIRE 384 368 128 368
WIRE 624 368 624 224
WIRE 624 368 496 368
WIRE 624 384 624 368
WIRE 384 400 384 368
WIRE 48 544 48 368
WIRE 496 544 496 368
WIRE 496 544 48 544
FLAG -400 224 0
FLAG -192 224 0
FLAG 480 272 0
FLAG 384 480 0
FLAG 624 448 0
FLAG 832 144 0
FLAG -80 320 0
DATAFLAG -400 112 ""
DATAFLAG 384 368 ""
DATAFLAG 624 368 ""
SYMBOL mc34063 240 128 R0
SYMATTR InstName U1
SYMBOL voltage -400 128 R0
WINDOW 123 0 0 Left 0
WINDOW 39 0 0 Left 0
SYMATTR InstName V1
SYMATTR Value 8.4
SYMBOL polcap -208 128 R0
SYMATTR InstName C1
SYMATTR Value 100µ
SYMBOL cap 464 208 R0
SYMATTR InstName C3
SYMATTR Value 0.018974µ
SYMBOL res -144 0 R0
SYMATTR InstName R1
SYMATTR Value 0.5
SYMBOL res 144 352 R90
WINDOW 0 0 56 VBottom 2
WINDOW 3 32 56 VTop 2
SYMATTR InstName R2
SYMATTR Value 18k
SYMBOL res 400 496 R180
WINDOW 0 43 76 Left 2
WINDOW 3 36 40 Left 2
SYMATTR InstName R3
SYMATTR Value 11k
SYMBOL polcap 608 384 R0
SYMATTR InstName C2
SYMATTR Value 750000µ
SYMBOL ind 608 128 R0
SYMATTR InstName L1
SYMATTR Value 3241µ
SYMBOL zener 784 96 R90
WINDOW 0 -4 32 VBottom 2
WINDOW 3 36 32 VTop 2
SYMATTR InstName D1
SYMATTR Value BZX84B6V2L
TEXT -432 552 Left 2 !.tran 2
TEXT 88 -136 Left 2 !.inc mc34063.lib
